CoresoETL/UCT_Source/20221102_1230_FO3_IT0.uct
##C 2007.05.01
DATA51  Dati creati in data  02 11 2022             12:30:00
COMM51  UCTE file Name : 20221102_1230_FO0_IT0.UCT
COMM51  Schede UCTE generate in OUTPUT in data  1:Nov:2022 17:15:19 - Versione UCTE   2 - Ver. TOUCTE 2.0
COMM51  UTENZA     : T1
COMM51  SITUAZIONE : S01 02-Nov-2022 12:30:00 - GRANDEZZE CALCOLATE
##N
##ZIT
ICINR121 A.CINEC.FL   0 0 233.44    52.0   -28.9     0.0     0.0     0.0     0.0     0.0     0.0   0.0     0.0
IAFKR121 A.FLAM.AL    0 0 233.73     0.0     0.0     0.0     0.0     0.0     0.0     0.0     0.0   0.0     0.0
IAFLR121 A.FLAMI.OS   0 0 233.81    60.5  -145.4     0.0     0.0     0.0     0.0     0.0     0.0   0.0     0.0
IPDAR121 A.P.DANTE    0 0 232.98    19.6     1.8     0.0     0.0     0.0     0.0     0.0     0.0   0.0     0.0
ISPAR121 A.S.PAOLO    0 0 232.96    28.0    -0.2     0.0     0.0     0.0     0.0     0.0     0.0   0.0     0.0
ITIBR121 A.TIBURTIN   0 0 232.95    28.9     2.8     0.0     0.0     0.0     0.0     0.0     0.0   0.0     0.0
IABDR12Z ABBADIA      0 0 220.00     0.0     0.0     0.0     0.0     0.0     0.0     0.0     0.0   0.0     0.0
IABKR12Z ABBADIA NK   0 0 220.00     0.0     0.0     0.0     0.0     0.0     0.0     0.0     0.0   0.0     0.0
IAVAV121 AC.BELT NK   0 0 232.21     0.0     0.0     0.0     0.0     0.0     0.0     0.0     0.0   0.0     0.0
IABSV121 AC.BERTOLI   0 0 234.67     7.6    -4.5     0.0     0.0     0.0     0.0     0.0     0.0   0.0     0.0
IABSV12M AC.BERTOLI   0 0 234.30     0.0     0.0     0.0     0.0     0.0     0.0     0.0     0.0   0.0     0.0
IACBV121 AC.VALB.BZ   0 0 220.55    12.1    28.8     0.0     0.0     0.0     0.0     0.0     0.0   0.0     0.0
IAVBV121 AC.VALB.VI   0 0 232.19    31.7    15.0     0.0     0.0     0.0     0.0     0.0     0.0   0.0     0.0
IAVEV121 AC.VEN.220   0 0 233.93    93.6    54.0     0.0     0.0     0.0     0.0     0.0     0.0   0.0     0.0
IAVRV121 AC.VERONA    0 0 233.57    22.3    -2.7     0.0     0.0     0.0     0.0     0.0     0.0   0.0     0.0
IABAV121 ACC. BZ NK   0 0 220.59     0.0     0.0     0.0     0.0     0.0     0.0     0.0     0.0   0.0     0.0
IACIF111 ACCIAIOLO    0 0 408.33   129.7    51.1     0.0     0.0     0.0     0.0     0.0     0.0   0.0     0.0
IAEPT111 ACEA LEYNI   0 2 403.09     0.0     0.0  -198.7    90.8  -163.0  -391.0   200.2  -331.6   5.0   392.0
ISOGN12Z ACERRA ENE   0 0 220.00     0.0     0.0     0.0     0.0     0.0     0.0     0.0     0.0   0.0     0.0
IACSN121 ACERRA SM    0 0 236.36     0.0     0.0     0.0     0.0     0.0     0.0     0.0     0.0   0.0     0.0
IADSV111 ADRIA SUD    0 0 408.51   -14.1    11.1     0.0     0.0     0.0     0.0     0.0     0.0   0.0     0.0
IAQAV121 AIRL.VR NK   0 0 233.97     0.0     0.0     0.0     0.0     0.0     0.0     0.0     0.0   0.0     0.0
IALQV121 AIRLIQ.VR    0 0 234.05     4.2   -35.0     0.0     0.0     0.0     0.0     0.0     0.0   0.0     0.0
IALAV121 ALA          0 2 232.80     0.0     0.0   -24.4     6.0    -5.0   -25.0    16.0    -4.5   6.0    25.0
IAVON12Z ALFA A. UT   0 0 220.00     0.0     0.0     0.0     0.0     0.0     0.0     0.0     0.0   0.0     0.0
IAAVN121 ALFA AVIO    0 0 236.46     0.0     0.0     0.0     0.0     0.0     0.0     0.0     0.0   0.0     0.0
IALIN111 ALIANO       0 0 410.75   -40.3   -58.6     0.0     0.0     0.0     0.0     0.0     0.0   0.0     0.0
IALCN111 ALTOMON.CE   0 2 408.82     0.0     0.0   -94.5    26.8  -152.0  -254.0   110.8  -282.4   4.0   253.7
IALCN211 ALTOMON.CE   0 2 408.82     0.0     0.0   -93.6    28.5  -152.0  -254.0   110.5  -282.8   4.0   253.7
IALCN311 ALTOMON.CE   0 2 408.81     0.0     0.0  -163.7    39.9   -83.0  -276.0   110.9  -231.6   5.0   276.5
IALSN111 ALTOMONTE    0 0 408.84     0.0     0.0     0.0     0.0     0.0     0.0     0.0     0.0   0.0     0.0
IANRN111 ANDRIA       0 0 402.25    75.4    74.1     0.0     0.0     0.0     0.0     0.0     0.0   0.0     0.0
IASGR111 APRIL.SORG   0 2 405.04     0.0     0.0  -273.8    41.5   -33.0  -531.0   207.0  -263.9   5.0   531.0
IAPLR111 APRILIA380   0 0 405.05     0.0     0.0     0.0     0.0     0.0     0.0     0.0     0.0   0.0     0.0
IARBT121 ARBARELLO    0 0 235.08     5.0    -1.0     0.0     0.0     0.0     0.0     0.0     0.0   0.0     0.0
IAROVA21 ARCO         0 0 229.34    23.6    14.6     0.0     0.0     0.0     0.0     0.0     0.0   0.0     0.0
IARNN121 ARENELLA     0 0 236.49    33.6     3.8     0.0     0.0     0.0     0.0     0.0     0.0   0.0     0.0
IARCF121 AREZZO C     0 0 233.36     0.0     0.0     0.0     0.0     0.0     0.0     0.0     0.0   0.0     0.0
IARCFA21 AREZZO C     0 0 233.36     0.0     0.0     0.0     0.0     0.0     0.0     0.0     0.0   0.0     0.0
IISPM111 ARVEDI ST    0 0 405.66   401.0   -34.8     0.0     0.0     0.0     0.0     0.0     0.0   0.0     0.0
IASTN121 ASTRONI      0 0 236.53    13.9     4.3     0.0     0.0     0.0     0.0     0.0     0.0   0.0     0.0
IAURR21Z AURELIA      0 0 400.00     0.0     0.0     0.0     0.0     0.0     0.0     0.0     0.0   0.0     0.0
IAURRA11 AURELIA      0 0 402.64     0.0   261.4     0.0     0.0     0.0     0.0     0.0     0.0   0.0     0.0
IAUZV12Z AURONZO      0 0 220.00     0.0     0.0     0.0     0.0     0.0     0.0     0.0     0.0   0.0     0.0
IAUZV22Z AURONZO      0 0 220.00     0.0     0.0     0.0     0.0     0.0     0.0     0.0     0.0   0.0     0.0
IAUKV12Z AURONZO NK   0 0 220.00     0.0     0.0     0.0     0.0     0.0     0.0     0.0     0.0   0.0     0.0
IAVNN111 AVELLINO N   0 0 411.32     0.0     0.0     0.0     0.0     0.0     0.0     0.0     0.0   0.0     0.0
IAVNF121 AVENZA       0 0 236.34    72.7     6.1     0.0     0.0     0.0     0.0     0.0     0.0   0.0     0.0
IAVRN121 AVERSA       0 0 236.41    16.4     1.3     0.0     0.0     0.0     0.0     0.0     0.0   0.0     0.0
IAVITA21 AVISE        0 0 237.30     0.0     0.0     0.0     0.0     0.0     0.0     0.0     0.0   0.0     0.0
IAZTVA21 AZOTATI      0 0 234.84     0.8    -2.1     0.0     0.0     0.0     0.0     0.0     0.0   0.0     0.0
IBVZV121 B.VALS.ZI    0 0 227.18    81.4    41.4     0.0     0.0     0.0     0.0     0.0     0.0   0.0     0.0
IBAGM111 BAGGIO       0 0 408.41   169.3   -34.9     0.0     0.0     0.0     0.0     0.0     0.0   0.0     0.0
IBAGM121 BAGGIO       0 0 239.69     0.0     0.0     0.0     0.0     0.0     0.0     0.0     0.0   0.0     0.0
IBAGM122 BAGGIO       0 0 234.83     0.0     0.0     0.0     0.0     0.0     0.0     0.0     0.0   0.0     0.0
IBALT121 BALZOLA      0 0 233.72    55.0     7.7     0.0     0.0     0.0     0.0     0.0     0.0   0.0     0.0
IBASF111 BARGI        0 0 408.97     0.0     0.0     0.0     0.0     0.0     0.0     0.0     0.0   0.0     0.0
IBARF11Z BARGI CENT   0 0 400.00     0.0     0.0     0.0     0.0     0.0     0.0     0.0     0.0   0.0     0.0
IBARF21Z BARGI CENT   0 0 400.00     0.0     0.0     0.0     0.0     0.0     0.0     0.0     0.0   0.0     0.0
IBAON111 BARI O       0 0 403.62    -7.0    21.6     0.0     0.0     0.0     0.0     0.0     0.0   0.0     0.0
IBLSNA11 BELCAS.380   0 0 404.24     4.8    -6.7     0.0     0.0     0.0     0.0     0.0     0.0   0.0     0.0
IABEV121 BELTRAME     0 0 232.21   121.0     2.4     0.0     0.0     0.0     0.0     0.0     0.0   0.0     0.0
IBLVMA21 BELVISO      0 2 238.15     0.0     0.0    -0.0    -0.6     0.0   -65.0    29.6   -55.6   4.0    65.0
IBN2N111 BENEVEN. 2   0 0 412.65    51.1   -42.4     0.0     0.0     0.0     0.0     0.0     0.0   0.0     0.0
IBN3N111 BENEVEN.3    0 0 412.75   -12.5   -71.5     0.0     0.0     0.0     0.0     0.0     0.0   0.0     0.0
IBIET121 BIELLA EST   0 0 234.52    33.8    -2.7     0.0     0.0     0.0     0.0     0.0     0.0   0.0     0.0
IBSAN111 BISAC.380    0 0 410.84    65.9   -87.9     0.0     0.0     0.0     0.0     0.0     0.0   0.0     0.0
IBSAN11Z BISAC.380    0 0 400.00     0.0     0.0     0.0     0.0     0.0     0.0     0.0     0.0   0.0     0.0
IBISTA21 BISTAGNO     0 0 235.37   -11.8    14.0     0.0     0.0     0.0     0.0     0.0     0.0   0.0     0.0
IBOAV121 BOAZZO       0 0 230.20     0.0     0.0     0.0     0.0     0.0     0.0     0.0     0.0   0.0     0.0
IBLNN11Z BOLANO       0 0 400.00     0.0     0.0     0.0     0.0     0.0     0.0     0.0     0.0   0.0     0.0
IBLNN21Z BOLANO       0 0 400.00     0.0     0.0     0.0     0.0     0.0     0.0     0.0     0.0   0.0     0.0
IBLNN31Z BOLANO       0 0 400.00     0.0     0.0     0.0     0.0     0.0     0.0     0.0     0.0   0.0     0.0
IBLNN41Z BOLANO       0 0 400.00     0.0     0.0     0.0     0.0     0.0     0.0     0.0     0.0   0.0     0.0
IBLNNF11 BOLANO       0 0 406.60  -129.0    25.7     0.0     0.0     0.0     0.0     0.0     0.0   0.0     0.0
IBZEVA21 BOLZANO      0 0 236.20    10.9     8.0     0.0     0.0     0.0     0.0     0.0     0.0   0.0     0.0
IBVSV121 BORGOVALSU   0 0 227.25    11.2    -9.0     0.0     0.0     0.0     0.0     0.0     0.0   0.0     0.0
IBOVM111 BOVISIO      0 0 409.66   266.1   -66.2     0.0     0.0     0.0     0.0     0.0     0.0   0.0     0.0
IBRAN111 BRIALL       0 0 394.45     0.0     0.0     0.0     0.0     0.0     0.0     0.0     0.0   0.0     0.0
IBSCN111 BRIN. S CE   0 2 394.15    17.7    12.6  -361.2    76.5  -205.0  -660.0   204.2  -390.4   5.0   660.0
IBSCN211 BRIN. S CE   0 0 394.75     0.3    -7.5     0.0     0.0     0.0     0.0     0.0     0.0   0.0     0.0
IBSCN311 BRIN. S CE   0 0 394.59    17.0     9.4     0.0     0.0     0.0     0.0     0.0     0.0   0.0     0.0
IBSCN411 BRIN. S CE   0 2 394.28    19.0     7.1  -353.4    68.3  -205.0  -660.0   211.6  -377.8   5.0   660.0
IBSSN111 BRIN. S ST   0 0 394.66   -48.2   227.1     0.0     0.0     0.0     0.0     0.0     0.0   0.0     0.0
IBRIN311 BRINDISI     0 2 394.69     0.0     0.0     0.3    69.9     0.0     0.0   125.0  -290.0   0.0     0.0
IBRIN411 BRINDISI     0 2 394.69     0.0     0.0     0.3    71.2     0.0     0.0   125.0  -290.0   0.0     0.0
IBRINA11 BRINDISI     0 0 394.75   -76.0   -70.0     0.0     0.0     0.0     0.0     0.0     0.0   0.0     0.0
IBRINA2Z BRINDISI     0 0 220.00     0.0     0.0     0.0     0.0     0.0     0.0     0.0     0.0   0.0     0.0
IBRNN111 BRINDISI N   0 2 394.05     0.0     0.0     0.3   151.3     0.0     0.0   302.3  -579.6   0.0     0.0
IBRNN12Z BRINDISI N   0 0 220.00     0.0     0.0     0.0     0.0     0.0     0.0     0.0     0.0   0.0     0.0
IVEAM121 BRUGH. AL    0 0 238.46     0.0     0.0     0.0     0.0     0.0     0.0     0.0     0.0   0.0     0.0
IBRUM111 BRUGHERIO    0 0 409.07   217.5   -12.7     0.0     0.0     0.0     0.0     0.0     0.0   0.0     0.0
IBRUM121 BRUGHERIO    0 0 238.86     0.0     0.0     0.0     0.0     0.0     0.0     0.0     0.0   0.0     0.0
IBRUM122 BRUGHERIO    0 0 235.20     0.0     0.0     0.0     0.0     0.0     0.0     0.0     0.0   0.0     0.0
IBRSN121 BRUSCIANO    0 0 236.48    14.4     1.7     0.0     0.0     0.0     0.0     0.0     0.0   0.0     0.0
IBUIV121 BUIA         0 0 231.30     0.0     0.0     0.0     0.0     0.0     0.0     0.0     0.0   0.0     0.0
IBULM111 BULCIAGO     0 0 411.56   365.5   -63.5     0.0     0.0     0.0     0.0     0.0     0.0   0.0     0.0
IBUSVA21 BUSSOL. SS   0 0 233.55    81.2   -52.0     0.0     0.0     0.0     0.0     0.0     0.0   0.0     0.0
ICAGMA11 CAGNO        0 0 410.37   115.5   -11.7     0.0     0.0     0.0     0.0     0.0     0.0   0.0     0.0
ICAIN121 CAIVANO      0 0 236.12    32.9     8.9     0.0     0.0     0.0     0.0     0.0     0.0   0.0     0.0
ICALF111 CALENZANO    0 0 409.37   232.9     6.3     0.0     0.0     0.0     0.0     0.0     0.0   0.0     0.0
ICALF121 CALENZANO    0 0 236.10     0.0     0.0     0.0     0.0     0.0     0.0     0.0     0.0   0.0     0.0
ICAMV111 CAMIN        0 0 408.04   180.5  -123.7     0.0     0.0     0.0     0.0     0.0     0.0   0.0     0.0
ICAMV121 CAMIN        0 0 234.01    82.1   -10.3     0.0     0.0     0.0     0.0     0.0     0.0   0.0     0.0
ICMOM121 CAMPO MORO   0 0 220.00     0.0     0.0     0.0     0.0     0.0     0.0     0.0     0.0   0.0     0.0
ICMOM12M CAMPO MORO   0 0 237.95     0.0     0.0     0.0     0.0     0.0     0.0     0.0     0.0   0.0     0.0
ICCHT121 CAMPOCHIES   0 0 236.15    72.1    -8.8     0.0     0.0     0.0     0.0     0.0     0.0   0.0     0.0
ICMPTA21 CAMPOROSSO   0 0 237.69    49.2     2.9     0.0     0.0     0.0     0.0     0.0     0.0   0.0     0.0
ICMPTA22 CAMPOROSSO   0 0 237.81     0.0     0.0     0.0     0.0     0.0     0.0     0.0     0.0   0.0     0.0
ICDLN111 CANDELA      0 2 405.19     0.0     0.0  -363.1   101.2  -192.8  -390.0   125.5  -282.0   4.3   390.0
ICANR111 CANDIA       0 0 400.00     0.0     0.0     0.0     0.0     0.0     0.0     0.0     0.0   0.0     0.0
ICANR11M CANDIA       0 0 412.21     0.0     0.0     0.0     0.0     0.0     0.0     0.0     0.0   0.0     0.0
ICANR11N CANDIA       0 0 412.21     0.0     0.0     0.0     0.0     0.0     0.0     0.0     0.0   0.0     0.0
ICANR311 CANDIA       0 0 412.21     0.0     0.0     0.0     0.0     0.0     0.0     0.0     0.0   0.0     0.0
ICANRA11 CANDIA       0 0 412.21    94.4     2.4     0.0     0.0     0.0     0.0     0.0     0.0   0.0     0.0
ICANR12Z CANDIA       0 0 220.00     0.0     0.0     0.0     0.0     0.0     0.0     0.0     0.0   0.0     0.0
ICANRA2Z CANDIA       0 0 220.00     0.0     0.0     0.0     0.0     0.0     0.0     0.0     0.0   0.0     0.0
ICAOM111 CAORSO       0 0 405.04     0.0     0.0     0.0     0.0     0.0     0.0     0.0     0.0   0.0     0.0
ICAPN121 CAPRIATI     0 0 236.85     0.0     0.0     0.0     0.0     0.0     0.0     0.0     0.0   0.0     0.0
ICARV121 CARDANO      0 0 222.55   -35.9   -62.3     0.0     0.0     0.0     0.0     0.0     0.0   0.0     0.0
ICRCV121 CARDANO CE   0 2 222.51     0.0     0.0   -55.3    29.4   -20.0   -64.0    37.4   -45.7   4.0    64.0
ICRCV122 CARDANO CE   0 0 222.55    -0.0    -0.0     0.0     0.0     0.0     0.0     0.0     0.0   0.0     0.0
ICAKV121 CARDANO NK   0 0 221.39     0.0     0.0     0.0     0.0     0.0     0.0     0.0     0.0   0.0     0.0
ICFOF111 CARPI FOSS   0 0 407.13   138.3    36.0     0.0     0.0     0.0     0.0     0.0     0.0   0.0     0.0
ICLNN111 CAS/ETA380   0 0 401.65   -17.7   -11.2     0.0     0.0     0.0     0.0     0.0     0.0   0.0     0.0
ICSVN121 CASALNUOVO   0 0 236.40    18.5    -3.3     0.0     0.0     0.0     0.0     0.0     0.0   0.0     0.0
ICSNT111 CASANOVA     0 0 405.68   128.8    13.2     0.0     0.0     0.0     0.0     0.0     0.0   0.0     0.0
ICSNT121 CASANOVA     0 0 235.25     0.0     0.0     0.0     0.0     0.0     0.0     0.0     0.0   0.0     0.0
ICSNT12M CASANOVA     0 0 235.78     0.0     0.0     0.0     0.0     0.0     0.0     0.0     0.0   0.0     0.0
ILCZM11Z CASELLA ST   0 0 400.00     0.0     0.0     0.0     0.0     0.0     0.0     0.0     0.0   0.0     0.0
ILCZMA11 CASELLA ST   0 0 402.46     9.5    -0.9     0.0     0.0     0.0     0.0     0.0     0.0   0.0     0.0
ICSLFA11 CASELLINA    0 0 409.38    80.4    85.2     0.0     0.0     0.0     0.0     0.0     0.0   0.0     0.0
ICSRN121 CASORIA      0 0 236.13    88.9    15.2     0.0     0.0     0.0     0.0     0.0     0.0   0.0     0.0
ICS2N121 CASORIA 2    0 0 236.27    13.9    -1.2     0.0     0.0     0.0     0.0     0.0     0.0   0.0     0.0
ICSSM111 CASSANO      0 2 409.23     0.0     0.0  -161.6    81.0  -125.0  -253.0    86.4  -196.1   4.0   253.1
ICSSM211 CASSANO      0 0 409.28     0.0     0.0     0.0     0.0     0.0     0.0     0.0     0.0   0.0     0.0
ICSSM311 CASSANO      0 0 409.28     0.0     0.0     0.0     0.0     0.0     0.0     0.0     0.0   0.0     0.0
ICSSM121 CASSANO      0 2 238.32     0.0     0.0   -92.9    85.8  -129.0  -230.0   110.3  -270.7   5.0   230.0
ICSSM221 CASSANO      0 0 238.37     0.0     0.0     0.0     0.0     0.0     0.0     0.0     0.0   0.0     0.0
ICSSMA21 CASSANO      0 0 238.43     0.0     0.0     0.0     0.0     0.0     0.0     0.0     0.0   0.0     0.0
ICSAMA21 CASSANO CS   0 0 238.81     0.0     0.0     0.0     0.0     0.0     0.0     0.0     0.0   0.0     0.0
ICAGV121 CASTEGNERO   0 0 233.88    18.4     5.8     0.0     0.0     0.0     0.0     0.0     0.0   0.0     0.0
ICBEV121 CASTELBELL   0 2 238.07    11.1    12.9   -25.7     7.0     0.0   -48.0    32.0   -47.4   6.0    48.0
ICASN121 CASTELL.     0 0 236.18    58.8     9.7     0.0     0.0     0.0     0.0     0.0     0.0   0.0     0.0
ICTNT111 CASTELN.S    0 0 407.06   111.4   -15.0     0.0     0.0     0.0     0.0     0.0     0.0   0.0     0.0
ICAVV121 CAVILLA      0 2 232.27     0.0     0.0    -6.7     0.3    -3.0   -12.0    11.0   -16.0   4.0    12.0
ICVAV121 CAVILLA NK   0 0 232.27     0.0     0.0     0.0     0.0     0.0     0.0     0.0     0.0   0.0     0.0
ICDGM121 CEDEG. SUD   0 0 226.29   -32.0    81.5     0.0     0.0     0.0     0.0     0.0     0.0   0.0     0.0
ICMDN121 CEMENT.MAD   0 0 236.08   101.7     1.3     0.0     0.0     0.0     0.0     0.0     0.0   0.0     0.0
ICTEN12Z CEN.EN.TEV   0 0 220.00     0.0     0.0     0.0     0.0     0.0     0.0     0.0     0.0   0.0     0.0
ICEPR111 CEPAGATTI    0 0 409.44     0.0  -309.1     0.0     0.0     0.0     0.0     0.0     0.0   0.0     0.0
ICEPR211 CEPAGATTI    0 0 409.56     0.0     0.0     0.0     0.0     0.0     0.0     0.0     0.0   0.0     0.0
ICEPR121 CEPAGATTI    0 0 193.54   612.0   306.0     0.0     0.0     0.0     0.0     0.0     0.0   0.0     0.0
ICEPR22Z CEPAGATTI    0 0 205.00     0.0     0.0     0.0     0.0     0.0     0.0     0.0     0.0   0.0     0.0
ICPNR111 CEPRANO380   0 0 410.07   151.9   -17.5     0.0     0.0     0.0     0.0     0.0     0.0   0.0     0.0
ICESMA21 CESANO M.    0 0 230.18    -0.4    59.5     0.0     0.0     0.0     0.0     0.0     0.0   0.0     0.0
ICHZT121 CHATILL.SE   0 0 236.70    31.1    10.1     0.0     0.0     0.0     0.0     0.0     0.0   0.0     0.0
ICHRM111 CHIARI ST    0 0 409.94   124.3    -1.7     0.0     0.0     0.0     0.0     0.0     0.0   0.0     0.0
ICHPM111 CHIGNOLO     0 0 403.38     0.0     0.0     0.0     0.0     0.0     0.0     0.0     0.0   0.0     0.0
ICHTT111 CHIVAS. CE   0 2 403.67     0.0     0.0  -657.7   177.5  -492.0  -860.0   262.0  -568.8   5.0   861.0
ICHTT121 CHIVAS. CE   0 0 234.39     0.0     0.0     0.0     0.0     0.0     0.0     0.0     0.0   0.0     0.0
ICHIT111 CHIVASSO S   0 0 403.81     0.0     0.0     0.0     0.0     0.0     0.0     0.0     0.0   0.0     0.0
ICIMVA21 CIMEGO       0 0 230.17    -0.1    -1.3     0.0     0.0     0.0     0.0     0.0     0.0   0.0     0.0
ICICV121 CIMEGO CE    0 0 230.17     0.0     0.0     0.0     0.0     0.0     0.0     0.0     0.0   0.0     0.0
ICICV221 CIMEGO CE    0 0 230.17     0.0     0.0     0.0     0.0     0.0     0.0     0.0     0.0   0.0     0.0
ICSEM111 CISERANO     0 0 406.58   299.9   -21.1     0.0     0.0     0.0     0.0     0.0     0.0   0.0     0.0
ICISM111 CISLAGO      0 0 409.94   139.7    32.0     0.0     0.0     0.0     0.0     0.0     0.0   0.0     0.0
ICISMB21 CISLAGO      0 0 237.65    73.8     3.1     0.0     0.0     0.0     0.0     0.0     0.0   0.0     0.0
ICITV121 CITTADELLA   0 0 233.09    28.9    -3.4     0.0     0.0     0.0     0.0     0.0     0.0   0.0     0.0
ISNDTA2Z COFELY SET   0 0 220.00     0.0     0.0     0.0     0.0     0.0     0.0     0.0     0.0   0.0     0.0
IDEAT121 COGNE IC     0 0 236.48     0.0     0.0     0.0     0.0     0.0     0.0     0.0     0.0   0.0     0.0
IDELT121 COGNE UT     0 0 236.43    42.5    33.6     0.0     0.0     0.0     0.0     0.0     0.0   0.0     0.0
ICLAVA21 COLA'        0 0 233.45     0.0     0.0     0.0     0.0     0.0     0.0     0.0     0.0   0.0     0.0
ICOAN121 COLLI AMIN   0 0 236.49    17.5     6.3     0.0     0.0     0.0     0.0     0.0     0.0   0.0     0.0
ICLRF121 COLORNO      0 0 236.43    14.4    -5.3     0.0     0.0     0.0     0.0     0.0     0.0   0.0     0.0
ICOLFA11 COLUNGA      0 0 409.12   150.9   -15.1     0.0     0.0     0.0     0.0     0.0     0.0   0.0     0.0
ICOLFA21 COLUNGA      0 0 235.88     0.0     0.0     0.0     0.0     0.0     0.0     0.0     0.0   0.0     0.0
ICONV121 CONEGLIANO   0 0 233.81    27.1     1.5     0.0     0.0     0.0     0.0     0.0     0.0   0.0     0.0
ICRDV111 CORDIGNANO   0 0 407.54   109.8   -25.3     0.0     0.0     0.0     0.0     0.0     0.0   0.0     0.0
ICMAM121 CORMANO      0 0 239.28     0.0     0.0     0.0     0.0     0.0     0.0     0.0     0.0   0.0     0.0
ICRWM111 CREMONA      0 0 405.66    78.4   -14.0     0.0     0.0     0.0     0.0     0.0     0.0   0.0     0.0
IDMNM121 DALMINE BG   0 0 237.32     0.0     0.0     0.0     0.0     0.0     0.0     0.0     0.0   0.0     0.0
IDALM121 DALMINE ST   0 0 237.40     0.0     0.0     0.0     0.0     0.0     0.0     0.0     0.0   0.0     0.0
IDELN111 DELICETO     0 0 405.28  -119.0   197.5     0.0     0.0     0.0     0.0     0.0     0.0   0.0     0.0
IDGNN121 DOGANELLA    0 0 236.11    39.3     8.0     0.0     0.0     0.0     0.0     0.0     0.0   0.0     0.0
IDOLV111 DOLO         0 0 407.02     8.4   199.9     0.0     0.0     0.0     0.0     0.0     0.0   0.0     0.0
IDOLV121 DOLO         0 0 234.64    44.1    -4.2     0.0     0.0     0.0     0.0     0.0     0.0   0.0     0.0
IDUSV111 DUGALE       0 0 406.48   276.4    21.0     0.0     0.0     0.0     0.0     0.0     0.0   0.0     0.0
IDUSV121 DUGALE       0 0 233.76     0.0     0.0     0.0     0.0     0.0     0.0     0.0     0.0   0.0     0.0
IEDOM111 EDOLO        0 0 414.53     0.0     0.0     0.0     0.0     0.0     0.0     0.0     0.0   0.0     0.0
IEDOM112 EDOLO        0 0 414.53     0.0     0.0     0.0     0.0     0.0     0.0     0.0     0.0   0.0     0.0
IEDOM211 EDOLO        0 0 414.52     0.0     0.0     0.0     0.0     0.0     0.0     0.0     0.0   0.0     0.0
IEPBN111 ENIPOW. BR   0 2 394.49    93.5    68.9  -635.7   104.2   -90.0 -1134.0   492.4  -965.6   5.0  1134.0
IECRF111 ENIPOW.RA    0 2 409.34    34.4    31.2  -280.7    -3.3  -409.0  -800.0   319.6  -700.9   5.0   800.0
IETQT111 ENTRACQUE    0 0 407.86     0.0     0.0     0.0     0.0     0.0     0.0     0.0     0.0   0.0     0.0
IEONT111 EON L.FERR   0 2 404.71     0.0     0.0  -363.2   117.8  -240.0  -530.0   107.7  -320.5   5.0   530.0
IECHNA11 ERCHIE       0 0 393.17   -11.6   173.9     0.0     0.0     0.0     0.0     0.0     0.0   0.0     0.0
IERCN121 ERCOLANO     0 0 236.49    30.0     1.2     0.0     0.0     0.0     0.0     0.0     0.0   0.0     0.0
IERZT121 ERZELLI      0 0 235.11   105.9     3.2     0.0     0.0     0.0     0.0     0.0     0.0   0.0     0.0
IERZTA21 ERZELLI      0 0 220.00     0.0     0.0     0.0     0.0     0.0     0.0     0.0     0.0   0.0     0.0
IERZTA2M ERZELLI      0 0 235.11     0.0     0.0     0.0     0.0     0.0     0.0     0.0     0.0   0.0     0.0
IFADVA21 FADALTO      0 0 233.56     0.0     0.0     0.0     0.0     0.0     0.0     0.0     0.0   0.0     0.0
IFNOR111 FANO E.T.    0 0 412.11    80.6   -19.9     0.0     0.0     0.0     0.0     0.0     0.0   0.0     0.0
IFNOR211 FANO E.T.    0 0 412.11     0.0     0.0     0.0     0.0     0.0     0.0     0.0     0.0   0.0     0.0
IFRLN111 FEROLETO     0 0 403.18     0.0   219.4     0.0     0.0     0.0     0.0     0.0     0.0   0.0     0.0
IFERF111 FERRARA F.   0 0 408.98    30.7   -80.6     0.0     0.0     0.0     0.0     0.0     0.0   0.0     0.0
IFENF111 FERRARA N.   0 0 408.27     0.0     0.0     0.0     0.0     0.0     0.0     0.0     0.0   0.0     0.0
IFRBM111 FERRERA E.   0 2 403.45    19.3     5.4  -340.7   118.7   -50.0  -626.0   319.9  -594.0   5.0   625.8
IFRBM112 FERRERA E.   0 2 403.64    30.0    14.0  -150.4    63.4   -30.0  -387.0   190.6  -350.3   5.0   386.3
IFENV121 FERRIERE N   0 0 231.01   140.2    34.7     0.0     0.0     0.0     0.0     0.0     0.0   0.0     0.0
IFAUN121 FIAT AUTO    0 0 236.19    19.2     2.5     0.0     0.0     0.0     0.0     0.0     0.0   0.0     0.0
IFAUN12M FIAT AUTO    0 0 236.48     0.0     0.0     0.0     0.0     0.0     0.0     0.0     0.0   0.0     0.0
IFMIT121 FIAT MIR.    0 0 234.91    27.3     6.8     0.0     0.0     0.0     0.0     0.0     0.0   0.0     0.0
IFIBN121 FIBE A.      0 2 236.33     0.0     0.0   -53.8    35.8   -25.0  -120.0    59.0  -106.0   5.0   120.0
IFRIT31Z FIL          0 0 380.00     0.0     0.0     0.0     0.0     0.0     0.0     0.0     0.0   0.0     0.0
IFRIT411 FIL          0 0 405.05     0.0     0.0     0.0     0.0     0.0     0.0     0.0     0.0   0.0     0.0
IFLEM111 FLERO ST     0 0 407.34   507.5   -30.0     0.0     0.0     0.0     0.0     0.0     0.0   0.0     0.0
IFOGN11Z FOGGIA       0 0 400.00     0.0     0.0     0.0     0.0     0.0     0.0     0.0     0.0   0.0     0.0
IFOGNA11 FOGGIA       0 0 406.17  -178.1  -126.0     0.0     0.0     0.0     0.0     0.0     0.0   0.0     0.0
IFGPN111 FOGGIA PST   0 0 406.22     0.0     0.0     0.0     0.0     0.0     0.0     0.0     0.0   0.0     0.0
IFGPN112 FOGGIA PST   0 0 409.69     0.0     0.0     0.0     0.0     0.0     0.0     0.0     0.0   0.0     0.0
IFGPN113 FOGGIA PST   0 0 407.78     0.0     0.0     0.0     0.0     0.0     0.0     0.0     0.0   0.0     0.0
ISFLF111 FONTELUPO    0 0 409.67     0.0     0.0     0.0     0.0     0.0     0.0     0.0     0.0   0.0     0.0
IFORF111 FORLI'       0 0 409.07    77.5   264.5     0.0     0.0     0.0     0.0     0.0     0.0   0.0     0.0
IFRANA21 FRATTA       0 0 236.15    62.9    74.9     0.0     0.0     0.0     0.0     0.0     0.0   0.0     0.0
IFACN121 FRI-EL ACE   0 0 236.34   -66.2    16.0     0.0     0.0     0.0     0.0     0.0     0.0   0.0     0.0
IFSNV111 FUSINA CE    0 2 406.19     0.0     0.0  -282.9   116.7  -120.0  -329.0    56.9  -191.9   5.0   329.0
IFSNV121 FUSINA CE    0 0 234.66     0.0     0.0     0.0     0.0     0.0     0.0     0.0     0.0   0.0     0.0
IGADM12Z GADIO        0 0 220.00     0.0     0.0     0.0     0.0     0.0     0.0     0.0     0.0   0.0     0.0
IGADMA21 GADIO        0 0 220.00     0.0     0.0     0.0     0.0     0.0     0.0     0.0     0.0   0.0     0.0
IGADMA23 GADIO        0 0 239.81    17.8    -0.2     0.0     0.0     0.0     0.0     0.0     0.0   0.0     0.0
IGADMA24 GADIO        0 0 239.47    14.5    -3.2     0.0     0.0     0.0     0.0     0.0     0.0   0.0     0.0
IGADMA25 GADIO        0 0 239.49    25.1    -1.4     0.0     0.0     0.0     0.0     0.0     0.0   0.0     0.0
IGLNN111 GALATINA     0 0 393.50     0.0     0.0     0.0     0.0     0.0     0.0     0.0     0.0   0.0     0.0
IGLNN112 GALATINA     0 0 395.38  -131.1   -74.3     0.0     0.0     0.0     0.0     0.0     0.0   0.0     0.0
IGLNN411 GALATINA     0 0 395.34     0.8  -110.0     0.0     0.0     0.0     0.0     0.0     0.0   0.0     0.0
IGLNN511 GALATINA     0 0 393.50     6.4     1.6     0.0     0.0     0.0     0.0     0.0     0.0   0.0     0.0
IGALR12Z GALLETO      0 0 220.00     0.0     0.0     0.0     0.0     0.0     0.0     0.0     0.0   0.0     0.0
IGALR221 GALLETO      0 2 233.40     0.0     0.0   -41.4     2.9     0.0   -83.0    13.1   -45.4   5.0    83.0
IGDAM121 GANDA        0 2 238.15     0.0     0.0     0.2     1.1     0.0   -64.0    35.0   -55.3   4.4    63.5
IGRGN111 GARAGUSO     0 0 408.02    -7.8    -4.0     0.0     0.0     0.0     0.0     0.0     0.0   0.0     0.0
IGARM121 GARGNANO     0 0 230.60     0.0     0.0     0.0     0.0     0.0     0.0     0.0     0.0   0.0     0.0
IGASN111 GARIGL. ST   0 0 411.25   100.4   -20.3     0.0     0.0     0.0     0.0     0.0     0.0   0.0     0.0
IGASN21Z GARIGL. ST   0 0 400.00     0.0     0.0     0.0     0.0     0.0     0.0     0.0     0.0   0.0     0.0
IGNZN111 GENZANO380   0 0 413.26     0.0     0.0     0.0     0.0     0.0     0.0     0.0     0.0   0.0     0.0
IGERT121 GERBIDO      0 0 235.19     0.0     0.0     0.0     0.0     0.0     0.0     0.0     0.0   0.0     0.0
IGSSR111 GISSI        0 0 409.36     0.0     0.0     0.0     0.0     0.0     0.0     0.0     0.0   0.0     0.0
IGSSRA11 GISSI        0 0 400.00     0.0     0.0     0.0     0.0     0.0     0.0     0.0     0.0   0.0     0.0
IGSSRA1M GISSI        0 0 409.36     0.0     0.0     0.0     0.0     0.0     0.0     0.0     0.0   0.0     0.0
IGSSRA1N GISSI        0 0 409.36     0.0     0.0     0.0     0.0     0.0     0.0     0.0     0.0   0.0     0.0
IGSCR111 GISSI CE     0 0 409.36     0.0     0.0     0.0     0.0     0.0     0.0     0.0     0.0   0.0     0.0
IGSCR211 GISSI CE     0 0 409.36     0.0     0.0     0.0     0.0     0.0     0.0     0.0     0.0   0.0     0.0
IGLOV121 GLORENZA     0 0 240.28     0.0    -5.5     0.0     0.0     0.0     0.0     0.0     0.0   0.0     0.0
IGLZV121 GLORENZACE   0 0 220.00     0.0     0.0     0.0     0.0     0.0     0.0     0.0     0.0   0.0     0.0
IGLZV12M GLORENZACE   0 0 240.28     0.0     0.0     0.0     0.0     0.0     0.0     0.0     0.0   0.0     0.0
IGLAV121 GLORENZANK   0 0 239.32     0.0     0.0     0.0     0.0     0.0     0.0     0.0     0.0   0.0     0.0
IGORM111 GORLAGO      0 0 411.43   177.1   -47.1     0.0     0.0     0.0     0.0     0.0     0.0   0.0     0.0
IGRAN121 GRAGNANO     0 0 237.24    -2.2    -2.9     0.0     0.0     0.0     0.0     0.0     0.0   0.0     0.0
IGRSMA21 GROSIO       0 2 242.42     0.5     0.1   -53.0    15.5     0.0  -107.0    66.6   -84.6   4.0   107.0
IGRTM121 GROSOTTO     0 0 242.46   -34.3   -24.2     0.0     0.0     0.0     0.0     0.0     0.0   0.0     0.0
IGRUTA21 GRUGLIASCO   0 0 235.15    19.4    -1.3     0.0     0.0     0.0     0.0     0.0     0.0   0.0     0.0
IRIVN121 ILVA-RIV     0 0 220.00     0.0     0.0     0.0     0.0     0.0     0.0     0.0     0.0   0.0     0.0
IRIVN122 ILVA-RIV     0 0 225.64     0.0     0.0     0.0     0.0     0.0     0.0     0.0     0.0   0.0     0.0
IRIVN12M ILVA-RIV     0 0 226.57     0.0     0.0     0.0     0.0     0.0     0.0     0.0     0.0   0.0     0.0
IRIVN12N ILVA-RIV     0 0 226.57     0.0     0.0     0.0     0.0     0.0     0.0     0.0     0.0   0.0     0.0
ISSRN121 ILVA-SSR     0 0 226.57    17.6    24.8     0.0     0.0     0.0     0.0     0.0     0.0   0.0     0.0
ISSRN12M ILVA-SSR     0 0 225.58     0.0     0.0     0.0     0.0     0.0     0.0     0.0     0.0   0.0     0.0
IITCT121 ILVA.CORNI   0 0 235.07    30.2    26.6     0.0     0.0     0.0     0.0     0.0     0.0   0.0     0.0
IISEN121 ISE CET3     0 2 225.58     0.0     0.0     1.8    43.8  -100.0  -117.0    41.2   -90.7   5.0   117.0
IISEN12M ISE CET3     0 0 226.61     0.0     0.0     0.0     0.0     0.0     0.0     0.0     0.0   0.0     0.0
IITNT121 ITAL NOVI    0 0 234.53    26.9    19.7     0.0     0.0     0.0     0.0     0.0     0.0   0.0     0.0
IKOTR111 KOTOR        0 0 420.13     0.0  -231.7     0.0     0.0     0.0     0.0     0.0     0.0   0.0     0.0
IKOTR211 KOTOR        0 0 420.18     0.0    79.4     0.0     0.0     0.0     0.0     0.0     0.0   0.0     0.0
IKOTR121 KOTOR        0 0 184.28  -600.0   300.0     0.0     0.0     0.0     0.0     0.0     0.0   0.0     0.0
IKOTR22Z KOTOR        0 0 205.00     0.0     0.0     0.0     0.0     0.0     0.0     0.0     0.0   0.0     0.0
ILCSM111 LA CASELLA   0 2 402.26     0.0     0.0  -158.0   153.2  -265.0  -368.0   192.4  -295.1   5.0   367.5
ILCSM21Z LA CASELLA   0 0 400.00     0.0     0.0     0.0     0.0     0.0     0.0     0.0     0.0   0.0     0.0
ILCSM311 LA CASELLA   0 2 402.29     0.0     0.0  -208.4   151.2  -265.0  -368.0   236.7  -488.6   5.0   367.5
ILCSM411 LA CASELLA   0 2 402.30     0.0     0.0  -161.1   143.1  -265.0  -368.0   244.1  -502.9   5.0   367.5
ICSIT11Z LABOR.CESI   0 0 400.00     0.0     0.0     0.0     0.0     0.0     0.0     0.0     0.0   0.0     0.0
ICSIT12Z LABOR.CESI   0 0 220.00     0.0     0.0     0.0     0.0     0.0     0.0     0.0     0.0   0.0     0.0
ILACM111 LACCHIAREL   0 0 406.38   302.3    36.7     0.0     0.0     0.0     0.0     0.0     0.0   0.0     0.0
ILAIN111 LAINO        0 0 411.90    11.0  -116.0     0.0     0.0     0.0     0.0     0.0     0.0   0.0     0.0
ILAIN12Z LAINO        0 0 220.00     0.0     0.0     0.0     0.0     0.0     0.0     0.0     0.0   0.0     0.0
ILAMMA21 LAMBRATE     0 0 239.55    49.0    -3.9     0.0     0.0     0.0     0.0     0.0     0.0   0.0     0.0
ILANV121 LANA         0 2 223.02     0.0     0.0    -2.6    32.4   -10.0   -40.0    20.7   -35.9   4.0    40.0
ILANV12M LANA         0 0 221.20     0.0     0.0     0.0     0.0     0.0     0.0     0.0     0.0   0.0     0.0
ILZDMA21 LANZADA      0 2 237.94     0.0     0.0   -14.9     3.3     0.0   -66.0    63.0   -46.0   5.0    66.0
ILARR111 LARINO       0 0 407.33   161.3   -44.0     0.0     0.0     0.0     0.0     0.0     0.0   0.0     0.0
ILK2V121 LASA NK 2    0 0 239.32     0.0     0.0     0.0     0.0     0.0     0.0     0.0     0.0   0.0     0.0
ILATR111 LATINA NUC   0 0 406.08   132.3   -49.9     0.0     0.0     0.0     0.0     0.0     0.0   0.0     0.0
ILATR211 LATINA NUC   0 0 405.99     0.0     0.0     0.0     0.0     0.0     0.0     0.0     0.0   0.0     0.0
ILATR311 LATINA NUC   0 0 406.07     0.0   -99.1     0.0     0.0     0.0     0.0     0.0     0.0   0.0     0.0
ILATR41Z LATINA NUC   0 0 400.00     0.0     0.0     0.0     0.0     0.0     0.0     0.0     0.0   0.0     0.0
ILATR121 LATINA NUC   0 0 206.31  -218.0   109.0     0.0     0.0     0.0     0.0     0.0     0.0   0.0     0.0
ILATR221 LATINA NUC   0 0 206.21  -223.9   112.0     0.0     0.0     0.0     0.0     0.0     0.0   0.0     0.0
ILVSV121 LAVIS        0 0 226.61    15.3   -11.1     0.0     0.0     0.0     0.0     0.0     0.0   0.0     0.0
ISLRF111 LE ROSE      0 0 409.67     0.0     0.0     0.0     0.0     0.0     0.0     0.0     0.0   0.0     0.0
IMATT121 LEVANNA      0 0 234.92    22.7    -0.3     0.0     0.0     0.0     0.0     0.0     0.0   0.0     0.0
ILEYTA11 LEYNI        0 0 403.38    90.1    28.3     0.0     0.0     0.0     0.0     0.0     0.0   0.0     0.0
ILEYTA21 LEYNI        0 0 234.72     0.0     0.0     0.0     0.0     0.0     0.0     0.0     0.0   0.0     0.0
ILNTM111 LONATO       0 0 410.00   157.9   -28.4     0.0     0.0     0.0     0.0     0.0     0.0   0.0     0.0
IMCON111 M/CORVINO    0 0 412.64   130.9    -6.1     0.0     0.0     0.0     0.0     0.0     0.0   0.0     0.0
IMCON121 M/CORVINO    0 0 237.34     0.0     0.0     0.0     0.0     0.0     0.0     0.0     0.0   0.0     0.0
IMDTN12Z MADD T-GAS   0 0 220.00     0.0     0.0     0.0     0.0     0.0     0.0     0.0     0.0   0.0     0.0
IMDTN22Z MADD T-GAS   0 0 220.00     0.0     0.0     0.0     0.0     0.0     0.0     0.0     0.0   0.0     0.0
IMADN121 MADDALONI    0 0 236.27    11.3     6.9     0.0     0.0     0.0     0.0     0.0     0.0   0.0     0.0
IMAGM11Z MAGENTA ST   0 0 400.00     0.0     0.0     0.0     0.0     0.0     0.0     0.0     0.0   0.0     0.0
IMAGM12Z MAGENTA ST   0 0 220.00     0.0     0.0     0.0     0.0     0.0     0.0     0.0     0.0   0.0     0.0
IMAGMA21 MAGENTA ST   0 0 220.00    65.3   -11.7     0.0     0.0     0.0     0.0     0.0     0.0   0.0     0.0
IMAGMA22 MAGENTA ST   0 0 239.51     6.3     3.8     0.0     0.0     0.0     0.0     0.0     0.0   0.0     0.0
IMGNN111 MAGISANO     0 0 403.88     0.0     0.0     0.0     0.0     0.0     0.0     0.0     0.0   0.0     0.0
IMGLT111 MAGLIANO     0 0 407.39    91.2    15.0     0.0     0.0     0.0     0.0     0.0     0.0   0.0     0.0
IMDAN111 MAIDA        0 0 403.17   -21.2   167.3     0.0     0.0     0.0     0.0     0.0     0.0   0.0     0.0
IMDAN21Z MAIDA        0 0 400.00     0.0     0.0     0.0     0.0     0.0     0.0     0.0     0.0   0.0     0.0
IMDAN31Z MAIDA        0 0 400.00     0.0     0.0     0.0     0.0     0.0     0.0     0.0     0.0   0.0     0.0
IMACVA21 MALCONTENT   0 0 234.82     0.0     0.0     0.0     0.0     0.0     0.0     0.0     0.0   0.0     0.0
IMLOM111 MALEO        0 0 404.75    40.8   -12.2     0.0     0.0     0.0     0.0     0.0     0.0   0.0     0.0
IMNFN111 MANFR.380    0 0 405.27     1.8    -4.7     0.0     0.0     0.0     0.0     0.0     0.0   0.0     0.0
IMTVM111 MANTOVA CE   0 0 402.89    37.0    31.2     0.0     0.0     0.0     0.0     0.0     0.0   0.0     0.0
IMTVM211 MANTOVA CE   0 2 402.81     0.0     0.0  -161.9   113.7  -265.0  -387.0   200.4  -357.0   5.0   386.3
IMTVM311 MANTOVA CE   0 2 402.82     0.0     0.0  -138.6   112.8  -265.0  -387.0   201.5  -364.1   5.0   386.3
IMTVM121 MANTOVA CE   0 0 206.96    -0.0     0.0     0.0     0.0     0.0     0.0     0.0     0.0   0.0     0.0
IMTVM12M MANTOVA CE   0 0 233.55     0.0     0.0     0.0     0.0     0.0     0.0     0.0     0.0   0.0     0.0
IMNTMA11 MANTOVA ST   0 0 403.28     0.0     0.0     0.0     0.0     0.0     0.0     0.0     0.0   0.0     0.0
IMARMA21 MARCARIA     0 0 235.76    33.0   -35.6     0.0     0.0     0.0     0.0     0.0     0.0   0.0     0.0
IMRLM121 MARCELLO     0 0 239.45    33.0     0.1     0.0     0.0     0.0     0.0     0.0     0.0   0.0     0.0
IPMLV32Z MARGHERA L   0 0 220.00     0.0     0.0     0.0     0.0     0.0     0.0     0.0     0.0   0.0     0.0
IPMLV421 MARGHERA L   0 2 234.82     0.0     0.0     3.7    10.3   -25.5  -510.0   281.0  -541.0   8.0   510.0
IPMLV521 MARGHERA L   0 2 234.80     0.0     0.0  -218.4    49.8  -124.0  -248.0    67.9   -56.6   8.0   248.0
IPMLV621 MARGHERA L   0 2 234.78     0.0     0.0  -102.9    21.5   -61.0  -135.0    81.7   -81.7   8.0   134.6
IPMLV721 MARGHERA L   0 0 234.81     0.0     0.0     0.0     0.0     0.0     0.0     0.0     0.0   0.0     0.0
IMRGF111 MARGINONE    0 0 409.01   238.3    72.7     0.0     0.0     0.0     0.0     0.0     0.0   0.0     0.0
IMRTF111 MARTIGNONE   0 0 407.59   232.9    57.3     0.0     0.0     0.0     0.0     0.0     0.0   0.0     0.0
IMAAT121 MARTINETTO   0 0 234.92    36.5     1.2     0.0     0.0     0.0     0.0     0.0     0.0   0.0     0.0
IMPIV121 MASO PILL    0 0 236.28     0.0     0.0     0.0     0.0     0.0     0.0     0.0     0.0   0.0     0.0
IMPIV221 MASO PILL    0 0 223.62     0.0     0.0     0.0     0.0     0.0     0.0     0.0     0.0   0.0     0.0
IMRAN21Z MATERA       0 0 400.00     0.0     0.0     0.0     0.0     0.0     0.0     0.0     0.0   0.0     0.0
IMRAN311 MATERA       0 2 402.87     0.0     0.0     6.9   127.4     0.0     0.0   125.0  -290.0   0.0     0.0
IMRANA11 MATERA       0 0 402.96    50.7  -129.6     0.0     0.0     0.0     0.0     0.0     0.0   0.0     0.0
IMLFNA11 MELFI 380    0 0 412.64    -2.4   -19.2     0.0     0.0     0.0     0.0     0.0     0.0   0.0     0.0
IMRCM111 MERCALLO     0 0 408.28   176.3    -2.2     0.0     0.0     0.0     0.0     0.0     0.0   0.0     0.0
IMESM121 MESE         0 0 237.95     0.0     0.0     0.0     0.0     0.0     0.0     0.0     0.0   0.0     0.0
ICTMMA21 MINCIO       0 0 234.08    24.8    42.0     0.0     0.0     0.0     0.0     0.0     0.0   0.0     0.0
IMDGN11Z MODUGNO CE   0 0 400.00     0.0     0.0     0.0     0.0     0.0     0.0     0.0     0.0   0.0     0.0
IMOIV121 MOLINE       0 0 230.03     0.0     0.0     0.0     0.0     0.0     0.0     0.0     0.0   0.0     0.0
IMLAV121 MOLINE NK    0 0 230.04     0.0     0.0     0.0     0.0     0.0     0.0     0.0     0.0   0.0     0.0
IMOCT121 MONCAL.CP    0 0 234.97    13.4    -1.1     0.0     0.0     0.0     0.0     0.0     0.0   0.0     0.0
IMOCT122 MONCAL.CP    0 0 235.55     9.7    -2.2     0.0     0.0     0.0     0.0     0.0     0.0   0.0     0.0
IMOAT121 MONCALIER    0 0 220.00     0.0     0.0     0.0     0.0     0.0     0.0     0.0     0.0   0.0     0.0
IMOAT12M MONCALIER    0 0 235.55     0.0     0.0     0.0     0.0     0.0     0.0     0.0     0.0   0.0     0.0
IMOAT12N MONCALIER    0 0 234.97     0.0     0.0     0.0     0.0     0.0     0.0     0.0     0.0   0.0     0.0
IMOAT32Z MONCALIER    0 0 220.00     0.0     0.0     0.0     0.0     0.0     0.0     0.0     0.0   0.0     0.0
IMOAT42Z MONCALIER    0 0 220.00     0.0     0.0     0.0     0.0     0.0     0.0     0.0     0.0   0.0     0.0
IMOAT52Z MONCALIER    0 0 220.00     0.0     0.0     0.0     0.0     0.0     0.0     0.0     0.0   0.0     0.0
IMOAT62Z MONCALIER    0 0 220.00     0.0     0.0     0.0     0.0     0.0     0.0     0.0     0.0   0.0     0.0
IMOAT72Z MONCALIER    0 0 220.00     0.0     0.0     0.0     0.0     0.0     0.0     0.0     0.0   0.0     0.0
IMOAT82Z MONCALIER    0 0 220.00     0.0     0.0     0.0     0.0     0.0     0.0     0.0     0.0   0.0     0.0
IMOATA21 MONCALIER    0 0 235.55     0.0     0.0     0.0     0.0     0.0     0.0     0.0     0.0   0.0     0.0
IMOATA22 MONCALIER    0 2 234.97     0.0     0.0  -323.7    85.3  -210.0  -392.0   126.2  -232.6   5.0   391.5
IMFTV11Z MONFALC.CE   0 0 400.00     0.0     0.0     0.0     0.0     0.0     0.0     0.0     0.0   0.0     0.0
IMFTV121 MONFALC.CE   0 0 236.77     0.0     0.0     0.0     0.0     0.0     0.0     0.0     0.0   0.0     0.0
IMLTR111 MONTALT.CE   0 0 400.00     0.0     0.0     0.0     0.0     0.0     0.0     0.0     0.0   0.0     0.0
IMLTR112 MONTALT.CE   0 0 406.31     0.0     0.0     0.0     0.0     0.0     0.0     0.0     0.0   0.0     0.0
IMLTR211 MONTALT.CE   0 2 406.29     0.0     0.0    -0.1     3.0   -62.0  -125.0    60.4   -75.7   4.0   125.0
IMLTR311 MONTALT.CE   0 0 406.30     0.0     0.0     0.0     0.0     0.0     0.0     0.0     0.0   0.0     0.0
IMLTR41Z MONTALT.CE   0 0 400.00     0.0     0.0     0.0     0.0     0.0     0.0     0.0     0.0   0.0     0.0
IMOSR111 MONTALTO     0 0 406.30   -66.8   -28.0     0.0     0.0     0.0     0.0     0.0     0.0   0.0     0.0
IMOSR21Z MONTALTO     0 0 400.00     0.0     0.0     0.0     0.0     0.0     0.0     0.0     0.0   0.0     0.0
IMOSRA11 MONTALTO     0 0 400.00     0.0     0.0     0.0     0.0     0.0     0.0     0.0     0.0   0.0     0.0
IMOSRA1M MONTALTO     0 0 406.30     0.0     0.0     0.0     0.0     0.0     0.0     0.0     0.0   0.0     0.0
IMOSRA1N MONTALTO     0 0 406.30     0.0     0.0     0.0     0.0     0.0     0.0     0.0     0.0   0.0     0.0
IMTJT121 MONTJOVET    0 2 236.57     0.0     0.0   -16.6     1.2     0.0   -25.0    25.0   -18.0   6.0    25.0
IMONR12Z MONTOR.CE    0 0 220.00     0.0     0.0     0.0     0.0     0.0     0.0     0.0     0.0   0.0     0.0
IMONR22Z MONTOR.CE    0 0 220.00     0.0     0.0     0.0     0.0     0.0     0.0     0.0     0.0   0.0     0.0
IMONR32Z MONTOR.CE    0 0 220.00     0.0     0.0     0.0     0.0     0.0     0.0     0.0     0.0   0.0     0.0
IMNVR121 MONTOR.SE    0 0 238.53     0.0     0.0     0.0     0.0     0.0     0.0     0.0     0.0   0.0     0.0
IMORTA21 MORIGALLO    0 0 235.82   104.0   -69.1     0.0     0.0     0.0     0.0     0.0     0.0   0.0     0.0
IMUSM111 MUSIGNANO    0 0 407.65     0.0     0.0     0.0     0.0     0.0     0.0     0.0     0.0   0.0     0.0
IMUSM11M MUSIGNANO    0 0 400.00     0.0     0.0     0.0     0.0     0.0     0.0     0.0     0.0   0.0     0.0
IMUCM121 MUSOCCO ST   0 0 239.60   -19.6    15.6     0.0     0.0     0.0     0.0     0.0     0.0   0.0     0.0
INACN121 NAPOLI C     0 0 236.31    27.4     4.2     0.0     0.0     0.0     0.0     0.0     0.0   0.0     0.0
INADN121 NAPOLI DIR   0 0 236.12    33.5     2.1     0.0     0.0     0.0     0.0     0.0     0.0   0.0     0.0
INALN121 NAPOLI L     0 2 235.77     0.0     0.0  -259.5   204.7  -240.0  -385.0   190.6  -261.6   4.3   385.0
INALNA21 NAPOLI L     0 0 236.02     0.0     0.0     0.0     0.0     0.0     0.0     0.0     0.0   0.0     0.0
INSCN12Z NASTRO CAR   0 0 220.00     0.0     0.0     0.0     0.0     0.0     0.0     0.0     0.0   0.0     0.0
INTAV121 NAT.P4 NK    0 0 219.57     5.7    74.5     0.0     0.0     0.0     0.0     0.0     0.0   0.0     0.0
IP41V121 NAT.P41 NK   0 0 221.11     0.0     0.0     0.0     0.0     0.0     0.0     0.0     0.0   0.0     0.0
INATV121 NATURNO      0 0 219.58    22.2     0.2     0.0     0.0     0.0     0.0     0.0     0.0   0.0     0.0
INAVM111 NAVE         0 0 410.66    63.5     2.6     0.0     0.0     0.0     0.0     0.0     0.0   0.0     0.0
INAVM121 NAVE         0 0 231.65    86.9    30.1     0.0     0.0     0.0     0.0     0.0     0.0   0.0     0.0
INOCN121 NOCERA       0 0 237.21    34.9     5.6     0.0     0.0     0.0     0.0     0.0     0.0   0.0     0.0
INGRV111 NOGAROLE     0 0 408.23   113.9    11.0     0.0     0.0     0.0     0.0     0.0     0.0   0.0     0.0
INOLN121 NOLA         0 0 236.63    36.4     5.0     0.0     0.0     0.0     0.0     0.0     0.0   0.0     0.0
INOXRA21 NOMENTA.RT   0 0 232.27    33.8    13.4     0.0     0.0     0.0     0.0     0.0     0.0   0.0     0.0
INOST121 NOVARA SUD   0 0 239.40   -42.7     5.7     0.0     0.0     0.0     0.0     0.0     0.0   0.0     0.0
INOSTA21 NOVARA SUD   0 0 220.00     0.0     0.0     0.0     0.0     0.0     0.0     0.0     0.0   0.0     0.0
INOSTA2M NOVARA SUD   0 0 239.40     0.0     0.0     0.0     0.0     0.0     0.0     0.0     0.0   0.0     0.0
INOVT121 NOVI L.      0 0 234.53     0.0     0.0     0.0     0.0     0.0     0.0     0.0     0.0   0.0     0.0
IODZVA21 ODERZO       0 0 234.01    37.0    11.6     0.0     0.0     0.0     0.0     0.0     0.0   0.0     0.0
IOSPM111 OSPIATE      0 0 409.51   232.8   -13.8     0.0     0.0     0.0     0.0     0.0     0.0   0.0     0.0
IOSPM121 OSPIATE      0 0 239.43     0.0     0.0     0.0     0.0     0.0     0.0     0.0     0.0   0.0     0.0
IOSCM111 OSTIGL.CE    0 2 403.79     0.0     0.0  -363.2   133.2   -30.3  -606.0   156.9  -231.1   5.0   606.0
IOSCM211 OSTIGL.CE    0 2 403.79     0.0     0.0  -373.3   129.6   -30.3  -606.0   154.5  -222.9   5.0   606.0
IOSCM411 OSTIGL.CE    0 0 403.87     0.0     0.0     0.0     0.0     0.0     0.0     0.0     0.0   0.0     0.0
IOSTM111 OSTIGL.ST    0 0 403.87   132.1   -35.1     0.0     0.0     0.0     0.0     0.0     0.0   0.0     0.0
IPCOF111 P.CORSINI    0 2 409.16     0.0     0.0  -364.8    48.1  -419.0  -838.0   398.0  -663.9   5.0   838.0
IPISF111 P.SPERANZA   0 0 410.66    36.1    15.9     0.0     0.0     0.0     0.0     0.0     0.0   0.0     0.0
IPVNMA21 P.VENEZIA    0 0 239.50    50.8    -6.5     0.0     0.0     0.0     0.0     0.0     0.0   0.0     0.0
IPDRV121 PADRICIANO   0 0 237.13    12.0   -10.0     0.0     0.0     0.0     0.0     0.0     0.0   0.0     0.0
IPDRV12Z PADRICIANO   0 0 220.00     0.0     0.0     0.0     0.0     0.0     0.0     0.0     0.0   0.0     0.0
IPLLTA21 PALLANZENO   0 0 238.81    48.5    10.3     0.0     0.0     0.0     0.0     0.0     0.0   0.0     0.0
IPDCN111 PALO D.C.    0 0 404.48    19.6   -62.6     0.0     0.0     0.0     0.0     0.0     0.0   0.0     0.0
IPRMF111 PARMA VIGH   0 0 408.30   248.1    48.9     0.0     0.0     0.0     0.0     0.0     0.0   0.0     0.0
IPATN111 PATRIA       0 0 412.90    76.0  -143.1     0.0     0.0     0.0     0.0     0.0     0.0   0.0     0.0
IPATN121 PATRIA       0 0 236.67     0.0     0.0     0.0     0.0     0.0     0.0     0.0     0.0   0.0     0.0
IPELT121 PELLERINA    0 0 234.92     0.0     0.0     0.0     0.0     0.0     0.0     0.0     0.0   0.0     0.0
IPELT122 PELLERINA    0 0 234.76     0.0     0.0     0.0     0.0     0.0     0.0     0.0     0.0   0.0     0.0
IPZAM11Z PIACENZA     0 0 400.00     0.0     0.0     0.0     0.0     0.0     0.0     0.0     0.0   0.0     0.0
IPNCM111 PIANCAMUNO   0 0 413.40   143.9   -42.5     0.0     0.0     0.0     0.0     0.0     0.0   0.0     0.0
IPIATA21 PIANEZZA     0 0 234.22    79.9   152.7     0.0     0.0     0.0     0.0     0.0     0.0   0.0     0.0
IPFNR121 PIETRAF.N.   0 2 231.46     0.0     0.0  -144.5    41.1  -182.0  -426.0   202.4  -317.9   5.0   426.3
IPF2R121 PIETRAF220   0 0 231.45    97.9     6.0     0.0     0.0     0.0     0.0     0.0     0.0   0.0     0.0
IPVAM111 PIEVE ALBI   0 0 404.02     0.0     0.0     0.0     0.0     0.0     0.0     0.0     0.0   0.0     0.0
IPBNF11Z PIOMBINO T   0 0 400.00     0.0     0.0     0.0     0.0     0.0     0.0     0.0     0.0   0.0     0.0
IPBNF21Z PIOMBINO T   0 0 400.00     0.0     0.0     0.0     0.0     0.0     0.0     0.0     0.0   0.0     0.0
IPIOTA11 PIOSSASCO    0 0 405.06   109.2   230.5     0.0     0.0     0.0     0.0     0.0     0.0   0.0     0.0
IPIOTA21 PIOSSASCO    0 0 234.44     0.0     0.0     0.0     0.0     0.0     0.0     0.0     0.0   0.0     0.0
IPSTNA21 PISTICCI     0 0 211.30     0.1   -11.2     0.0     0.0     0.0     0.0     0.0     0.0   0.0     0.0
IPLNV111 PLANAIS      0 0 406.10   118.5   -27.5     0.0     0.0     0.0     0.0     0.0     0.0   0.0     0.0
IPACF111 POGGIO A C   0 0 409.57   197.2    -7.4     0.0     0.0     0.0     0.0     0.0     0.0   0.0     0.0
IPGRN121 POGGIOR.     0 0 236.45    39.8     6.4     0.0     0.0     0.0     0.0     0.0     0.0   0.0     0.0
IPGNM111 POGLIANO     0 0 409.69     0.0     0.0     0.0     0.0     0.0     0.0     0.0     0.0   0.0     0.0
IPLTT121 POLITECNIC   0 0 234.96     0.0     0.0     0.0     0.0     0.0     0.0     0.0     0.0   0.0     0.0
IPONTA21 PONTE V.F.   0 0 239.21   -32.4     1.5     0.0     0.0     0.0     0.0     0.0     0.0   0.0     0.0
IPTRVA21 PONTERESIA   0 0 219.97    74.6   160.9     0.0     0.0     0.0     0.0     0.0     0.0   0.0     0.0
IPTRVA2M PONTERESIA   0 0 221.17     0.0     0.0     0.0     0.0     0.0     0.0     0.0     0.0   0.0     0.0
IPOPR121 POPOLI       0 0 235.99    33.7    -0.5     0.0     0.0     0.0     0.0     0.0     0.0   0.0     0.0
IPNEV121 PORDENONE    0 0 234.36    22.2   -17.5     0.0     0.0     0.0     0.0     0.0     0.0   0.0     0.0
IPSEF12Z PORTALE      0 0 220.00     0.0     0.0     0.0     0.0     0.0     0.0     0.0     0.0   0.0     0.0
IPTVMA21 PORTAVOLTA   0 0 239.49   116.6    -2.9     0.0     0.0     0.0     0.0     0.0     0.0   0.0     0.0
IPTOV111 PORTOTOLLE   0 0 409.45    -4.0    11.9     0.0     0.0     0.0     0.0     0.0     0.0   0.0     0.0
IPOZN121 POZZUOLI     0 0 220.00     0.0     0.0     0.0     0.0     0.0     0.0     0.0     0.0   0.0     0.0
IPOZN122 POZZUOLI     0 0 236.61    13.9     2.4     0.0     0.0     0.0     0.0     0.0     0.0   0.0     0.0
IPRCV121 PRACOMUNE    0 0 220.00     0.0     0.0     0.0     0.0     0.0     0.0     0.0     0.0   0.0     0.0
IPRCV12M PRACOMUNE    0 0 222.75     0.0     0.0     0.0     0.0     0.0     0.0     0.0     0.0   0.0     0.0
IPEDN111 PRE EDISON   0 0 411.90     0.0     0.0     0.0     0.0     0.0     0.0     0.0     0.0   0.0     0.0
IKPRM121 PREMAD. AL   0 0 242.22     0.0     0.0     0.0     0.0     0.0     0.0     0.0     0.0   0.0     0.0
IPDMM121 PREMADIO     0 0 242.24     0.0     0.0     0.0     0.0     0.0     0.0     0.0     0.0   0.0     0.0
IPDMMA21 PREMADIO     0 0 242.24    13.3    -7.1     0.0     0.0     0.0     0.0     0.0     0.0   0.0     0.0
IPREN111 PRESENZANO   0 0 411.88     0.0     0.0     0.0     0.0     0.0     0.0     0.0     0.0   0.0     0.0
IPREN121 PRESENZANO   0 0 236.86     4.3     0.4     0.0     0.0     0.0     0.0     0.0     0.0   0.0     0.0
IPR2R121 PROVVID.A2   0 0 235.05     0.0     0.0     0.0     0.0     0.0     0.0     0.0     0.0   0.0     0.0
IPRVR121 PROVVIDEN.   0 0 235.07     0.0     0.0     0.0     0.0     0.0     0.0     0.0     0.0   0.0     0.0
IPRVR122 PROVVIDEN.   0 2 235.04     0.0     0.0    -1.0     5.5    60.0   -46.0    22.2   -31.3   5.0    46.0
IQUAT121 QUART        0 2 236.53     0.0     0.0   -15.1     1.4     0.0   -20.0     9.6   -18.0   6.0    20.4
IQUDT121 QUART IC     0 0 236.52     0.0     0.0     0.0     0.0     0.0     0.0     0.0     0.0   0.0     0.0
IRATV121 RAT.P62 NK   0 0 221.20     0.0     0.0     0.0     0.0     0.0     0.0     0.0     0.0   0.0     0.0
IRATN111 RATINO       0 2 404.37     0.0     0.0  -319.5   194.3  -116.0  -447.0   163.5  -234.1   2.0   447.0
IRACF111 RAVENNA C.   0 0 409.34    29.0    -1.6     0.0     0.0     0.0     0.0     0.0     0.0   0.0     0.0
IRDPVA11 REDIPUGLIA   0 0 407.61    28.6   -23.5     0.0     0.0     0.0     0.0     0.0     0.0   0.0     0.0
IRDPVA21 REDIPUGLIA   0 0 236.33     0.0     0.0     0.0     0.0     0.0     0.0     0.0     0.0   0.0     0.0
IRDPVA2M REDIPUGLIA   0 0 234.37     0.0     0.0     0.0     0.0     0.0     0.0     0.0     0.0   0.0     0.0
IROXM111 RHO          0 0 409.68     0.0     0.0     0.0     0.0     0.0     0.0     0.0     0.0   0.0     0.0
IRCOV121 RIC. OVEST   0 0 233.57    -4.3     1.4     0.0     0.0     0.0     0.0     0.0     0.0   0.0     0.0
INOMMA21 RIC.NORD M   0 0 239.16   100.7    -8.6     0.0     0.0     0.0     0.0     0.0     0.0   0.0     0.0
IBSOMA21 RIC.OV. BS   0 0 220.00     0.0     0.0     0.0     0.0     0.0     0.0     0.0     0.0   0.0     0.0
IBSOMA2M RIC.OV. BS   0 0 238.84     0.0     0.0     0.0     0.0     0.0     0.0     0.0     0.0   0.0     0.0
IOVMMA21 RIC.OV. MI   0 0 239.77    59.5   -12.6     0.0     0.0     0.0     0.0     0.0     0.0   0.0     0.0
ISMIMA21 RIC.SUD MI   0 0 239.72    97.1    -1.2     0.0     0.0     0.0     0.0     0.0     0.0   0.0     0.0
IKSEMA21 RISE SESTO   0 0 220.00     0.0     0.0     0.0     0.0     0.0     0.0     0.0     0.0   0.0     0.0
IKSEMA2M RISE SESTO   0 0 238.86     0.0     0.0     0.0     0.0     0.0     0.0     0.0     0.0   0.0     0.0
IKSEMA2N RISE SESTO   0 0 238.86     0.0     0.0     0.0     0.0     0.0     0.0     0.0     0.0   0.0     0.0
IRICN111 RIZZIC.CE    0 0 406.61     0.0     0.0     0.0     0.0     0.0     0.0     0.0     0.0   0.0     0.0
IRICN211 RIZZIC.CE    0 2 406.61     0.0     0.0  -211.2     5.5  -200.0  -400.0   175.5  -332.7   3.8   400.0
IRIZN111 RIZZICONI    0 0 406.72   117.1  -152.9     0.0     0.0     0.0     0.0     0.0     0.0   0.0     0.0
IRIZN211 RIZZICONI    0 0 406.61     0.0   155.0     0.0     0.0     0.0     0.0     0.0     0.0   0.0     0.0
IRMER111 ROMA EST     0 0 405.18   174.0   -33.0     0.0     0.0     0.0     0.0     0.0     0.0   0.0     0.0
IRMNR111 ROMA NORD    0 0 403.96   163.1   172.5     0.0     0.0     0.0     0.0     0.0     0.0   0.0     0.0
IRMNR121 ROMA NORD    0 0 232.65     0.0   183.6     0.0     0.0     0.0     0.0     0.0     0.0   0.0     0.0
IRMOR111 ROMA OVEST   0 0 406.59   324.7  -231.2     0.0     0.0     0.0     0.0     0.0     0.0   0.0     0.0
IRMSR111 ROMA SUD     0 0 403.97   241.9   261.4     0.0     0.0     0.0     0.0     0.0     0.0   0.0     0.0
IRMSR121 ROMA SUD     0 0 231.99     0.0   182.9     0.0     0.0     0.0     0.0     0.0     0.0   0.0     0.0
IROVM11Z RONCOVALGR   0 0 400.00     0.0     0.0     0.0     0.0     0.0     0.0     0.0     0.0   0.0     0.0
IROVM211 RONCOVALGR   0 2 407.63     0.0     0.0   104.3    -0.1    98.0  -130.0    48.3   -62.9   5.0   130.0
IROVM311 RONCOVALGR   0 0 407.65     0.0     0.0     0.0     0.0     0.0     0.0     0.0     0.0   0.0     0.0
IROVM411 RONCOVALGR   0 2 407.65     0.0     0.0   103.5   -12.1    98.0  -130.0    50.1   -63.1   5.0   130.0
IRONT111 RONDISSONE   0 0 404.08   145.1    -4.0     0.0     0.0     0.0     0.0     0.0     0.0   0.0     0.0
IRONT112 RONDISSONE   0 0 391.34     0.0     0.0     0.0     0.0     0.0     0.0     0.0     0.0   0.0     0.0
IRONT113 RONDISSONE   0 0 391.34     0.0     0.0     0.0     0.0     0.0     0.0     0.0     0.0   0.0     0.0
IRONT121 RONDISSONE   0 0 234.39     0.0     0.0     0.0     0.0     0.0     0.0     0.0     0.0   0.0     0.0
IRSRR21Z ROSARA       0 0 400.00     0.0     0.0     0.0     0.0     0.0     0.0     0.0     0.0   0.0     0.0
IRSRRA11 ROSARA       0 0 409.55    69.3   -20.0     0.0     0.0     0.0     0.0     0.0     0.0   0.0     0.0
IRSRRA21 ROSARA       0 0 239.74    21.7   -16.1     0.0     0.0     0.0     0.0     0.0     0.0   0.0     0.0
IRRKR121 ROSARA NK    0 0 239.62     0.0     0.0     0.0     0.0     0.0     0.0     0.0     0.0   0.0     0.0
IRELF111 ROSELECTRA   0 2 406.86     0.0     0.0  -202.9    86.5  -163.0  -386.0   194.9  -323.1   5.0   386.0
IRSNF111 ROSEN        0 0 406.88   -75.6    34.9     0.0     0.0     0.0     0.0     0.0     0.0   0.0     0.0
IRRSF111 ROSIGNANO    0 0 406.91     0.0     0.0     0.0     0.0     0.0     0.0     0.0     0.0   0.0     0.0
IROAT121 ROSONE       0 0 236.14     0.0     0.0     0.0     0.0     0.0     0.0     0.0     0.0   0.0     0.0
IROATA21 ROSONE       0 0 236.14    37.2   -10.5     0.0     0.0     0.0     0.0     0.0     0.0   0.0     0.0
IROSN111 ROSSANO TE   0 0 409.26   -50.7    93.4     0.0     0.0     0.0     0.0     0.0     0.0   0.0     0.0
IRLLR111 ROTELLO380   0 0 406.63     4.0    -3.0     0.0     0.0     0.0     0.0     0.0     0.0   0.0     0.0
IRZNM121 ROZZANO      0 0 238.87    13.9    -5.1     0.0     0.0     0.0     0.0     0.0     0.0   0.0     0.0
IRUBFA11 RUBIERA      0 0 408.28   248.5   -21.7     0.0     0.0     0.0     0.0     0.0     0.0   0.0     0.0
ISAZV121 S.ANT C.LE   0 2 222.78     0.0     0.0   -23.1    31.4    -2.0   -35.0    15.6   -29.3   4.0    35.5
ISNTN121 S.ANTIMO     0 0 236.23    20.9     6.1     0.0     0.0     0.0     0.0     0.0     0.0   0.0     0.0
ISATV121 S.ANTONIO    0 0 222.82    -0.1    -4.5     0.0     0.0     0.0     0.0     0.0     0.0   0.0     0.0
ISBQF121 S.B.QUERCE   0 0 236.21    -0.3    -1.7     0.0     0.0     0.0     0.0     0.0     0.0   0.0     0.0
ISBAF11Z S.BARB.CLE   0 0 400.00     0.0     0.0     0.0     0.0     0.0     0.0     0.0     0.0   0.0     0.0
ISBAF211 S.BARB.CLE   0 2 408.30     0.0     0.0   -89.6    74.4  -147.0  -257.0   113.8  -199.9   5.0   257.0
ISBSFA11 S.BARBARA    0 0 400.00     0.0     0.0     0.0     0.0     0.0     0.0     0.0     0.0   0.0     0.0
ISBSFA12 S.BARBARA    0 0 408.35     0.0     0.0     0.0     0.0     0.0     0.0     0.0     0.0   0.0     0.0
ISBSFA21 S.BARBARA    0 0 234.07     0.0     0.0     0.0     0.0     0.0     0.0     0.0     0.0   0.0     0.0
ISCOT121 S.COLOM.GE   0 0 234.78    51.0    38.1     0.0     0.0     0.0     0.0     0.0     0.0   0.0     0.0
ISCOTA21 S.COLOM.GE   0 0 234.78     0.0     0.0     0.0     0.0     0.0     0.0     0.0     0.0   0.0     0.0
ISCRM121 S.CRISTOF    0 0 239.77     0.0     0.0     0.0     0.0     0.0     0.0     0.0     0.0   0.0     0.0
ISDMF111 S.DAMASO     0 0 407.95   109.9   -22.1     0.0     0.0     0.0     0.0     0.0     0.0   0.0     0.0
ISFIM111 S.FIORANO    0 0 414.25     0.0     0.0     0.0     0.0     0.0     0.0     0.0     0.0   0.0     0.0
ISFLV121 S.FLORIANO   0 0 224.14     0.0     0.0     0.0     0.0     0.0     0.0     0.0     0.0   0.0     0.0
ISGIR11Z S.GIACO.CE   0 0 400.00     0.0     0.0     0.0     0.0     0.0     0.0     0.0     0.0   0.0     0.0
ISGIR12Z S.GIACO.CE   0 0 220.00     0.0     0.0     0.0     0.0     0.0     0.0     0.0     0.0   0.0     0.0
ISGSR111 S.GIACO.SE   0 0 406.78     0.0     0.0     0.0     0.0     0.0     0.0     0.0     0.0   0.0     0.0
ISGSR121 S.GIACO.SE   0 0 234.77     0.0     0.0     0.0     0.0     0.0     0.0     0.0     0.0   0.0     0.0
ISIKR121 S.GIANK      0 0 235.07     0.0     0.0     0.0     0.0     0.0     0.0     0.0     0.0   0.0     0.0
ISLUR111 S.LUCIA      0 0 402.93    35.2   -17.8     0.0     0.0     0.0     0.0     0.0     0.0   0.0     0.0
ISLUR121 S.LUCIA      0 0 234.22    16.9   -31.6     0.0     0.0     0.0     0.0     0.0     0.0   0.0     0.0
ISMRNA11 S.MARIA C.   0 0 411.10   141.2   -99.6     0.0     0.0     0.0     0.0     0.0     0.0   0.0     0.0
ISMRN121 S.MARIA C.   0 0 236.53     0.0     0.0     0.0     0.0     0.0     0.0     0.0     0.0   0.0     0.0
ISMVF111 S.MART. XX   0 0 410.83   104.4    13.9     0.0     0.0     0.0     0.0     0.0     0.0   0.0     0.0
ISMCVA21 S.MASS. CE   0 0 228.49     0.0     0.0     0.0     0.0     0.0     0.0     0.0     0.0   0.0     0.0
ISMCVA22 S.MASS. CE   0 0 228.49     0.0     0.0     0.0     0.0     0.0     0.0     0.0     0.0   0.0     0.0
ISMSV121 S.MASSENZA   0 0 228.49     0.0     0.0     0.0     0.0     0.0     0.0     0.0     0.0   0.0     0.0
ISPCV12Z S.PANCRAZ.   0 0 220.00     0.0     0.0     0.0     0.0     0.0     0.0     0.0     0.0   0.0     0.0
ISPCVA21 S.PANCRAZ.   0 2 222.84     0.0     0.0     0.2     6.6     0.0   -41.0    25.4   -30.8   4.0    41.0
ISROM111 S.ROCCO PO   0 0 404.72   227.7   -50.1     0.0     0.0     0.0     0.0     0.0     0.0   0.0     0.0
ISSEN121 S.SEBAST.    0 0 236.33    17.0     0.4     0.0     0.0     0.0     0.0     0.0     0.0   0.0     0.0
ISEVN111 S.SEVER380   0 0 405.01   -18.4    -3.3     0.0     0.0     0.0     0.0     0.0     0.0   0.0     0.0
...